analytic_data/folder1/output_voltage_1.csv
# output_voltage_1.csv run at 2000-01-01 00:01:00 UTC on 966 nodes
node_name,voltA_mag,voltA_angle,voltB_mag,voltB_angle,voltC_mag,voltC_angle
SourceBus,6668.395609,0.000000,6668.395609,4.188790,6668.395609,2.094395
Bus1,251.570766,-0.536889,252.178359,3.657317,251.952524,1.559202
Bus2,251.375808,-0.537045,252.142494,3.657085,251.838269,1.559315
Bus3,251.355370,-0.537061,252.138735,3.657060,251.826291,1.559327
Bus4,251.336223,-0.537077,252.135213,3.657038,251.815070,1.559338
Bus5,251.319529,-0.537090,252.132143,3.657018,251.805286,1.559348
Bus6,251.293230,-0.537111,252.127306,3.656986,251.789874,1.559363
Bus7,249.502645,-0.538554,251.798535,3.654850,250.740485,1.560409
Bus8,249.422460,-0.538619,251.783836,3.654754,250.693491,1.560456
Bus9,249.355721,-0.538673,251.771604,3.654675,250.654377,1.560495
Bus10,249.297152,-0.538721,251.760871,3.654605,250.620052,1.560530
Bus11,249.253450,-0.538756,251.752863,3.654552,250.594439,1.560555
Bus12,249.212424,-0.538790,251.745346,3.654503,250.570395,1.560579
Bus13,249.187197,-0.538810,251.740724,3.654473,250.555611,1.560594
Bus14,249.124394,-0.538861,251.729218,3.654398,250.518804,1.560631
Bus15,248.615660,-0.539276,251.636065,3.653790,250.220647,1.560930
Bus16,248.615660,-0.539276,251.636065,3.653790,250.220647,1.560930
Bus17,247.998790,-0.539782,251.523225,3.653051,249.859112,1.561294
Bus18,248.615660,-0.539276,251.636065,3.653790,250.220647,1.560930
Bus19,247.956348,-0.539817,251.515466,3.653000,249.834238,1.561319
Bus20,248.615660,-0.539276,251.636065,3.653790,250.220647,1.560930
Bus21,247.908691,-0.539856,251.506755,3.652943,249.806306,1.561347
Bus22,248.615660,-0.539276,251.636065,3.653790,250.220647,1.560930
Bus23,247.831096,-0.539920,251.492572,3.652850,249.760829,1.561393
Bus24,248.615660,-0.539276,251.636065,3.653790,250.220647,1.560930
Bus25,247.689936,-0.540036,251.466776,3.652681,249.678097,1.561477
Bus26,248.615660,-0.539276,251.636065,3.653790,250.220647,1.560930
Bus27,247.687370,-0.540033,251.466784,3.652681,249.678125,1.561477
Bus28,245.924286,-0.541506,251.143842,3.650564,248.640505,1.562524
Bus29,248.615660,-0.539276,251.636065,3.653790,250.220647,1.560930
Bus30,247.687088,-0.540033,251.466784,3.652681,249.678128,1.561477
Bus31,247.686957,-0.540033,251.466785,3.652681,249.678130,1.561477
Bus32,245.454333,-0.541901,251.058062,3.649999,248.364328,1.562804
Bus33,248.615660,-0.539276,251.636065,3.653790,250.220647,1.560930
Bus34,247.686440,-0.540032,251.466786,3.652681,249.678136,1.561477
Bus35,247.686943,-0.540033,251.466785,3.652681,249.678130,1.561477
Bus36,245.454361,-0.541901,251.055444,3.650002,248.364336,1.562804
Bus37,244.032713,-0.543108,250.801702,3.648288,247.529122,1.563660
Bus38,248.615660,-0.539276,251.636065,3.653790,250.220647,1.560930
Bus39,247.686923,-0.540033,251.466785,3.652681,249.678130,1.561477
Bus40,245.454362,-0.541901,251.055345,3.650002,248.364336,1.562804
Bus41,245.454365,-0.541901,251.055066,3.650002,248.364337,1.562804
Bus42,243.046414,-0.543954,250.624237,3.647098,246.949652,1.564258
Bus43,244.032713,-0.543108,250.801702,3.648288,247.529122,1.563660
Bus44,248.615660,-0.539276,251.636065,3.653790,250.220647,1.560930
Bus45,247.686897,-0.540033,251.466785,3.652681,249.678130,1.561477
Bus46,245.454363,-0.541901,251.055301,3.650002,248.364336,1.562804
Bus47,245.454375,-0.541901,251.054155,3.650003,248.364339,1.562804
Bus48,242.301227,-0.544598,250.490370,3.646198,246.511830,1.564711
Bus49,244.032713,-0.543108,250.801702,3.648288,247.529122,1.563660
Bus50,248.615660,-0.539276,251.636065,3.653790,250.220647,1.560930
Bus51,247.686834,-0.540033,251.466785,3.652681,249.678131,1.561477
Bus52,245.454363,-0.541901,251.055253,3.650002,248.364336,1.562804
Bus53,242.193794,-0.544691,250.471086,3.646068,246.448709,1.564776
Bus54,242.301227,-0.544598,250.490370,3.646198,246.511830,1.564711
Bus55,244.032713,-0.543108,250.801702,3.648288,247.529122,1.563660
Bus56,248.615660,-0.539276,251.636065,3.653790,250.220647,1.560930
Bus57,247.686781,-0.540033,251.466785,3.652681,249.678132,1.561477
Bus58,245.454364,-0.541901,251.055208,3.650002,248.364336,1.562804
Bus59,241.707179,-0.545114,250.383787,3.645479,246.162802,1.565073
Bus60,242.301227,-0.544598,250.490370,3.646198,246.511830,1.564711
Bus61,244.032713,-0.543108,250.801702,3.648288,247.529122,1.563660
Bus62,248.615660,-0.539276,251.636065,3.653790,250.220647,1.560930
Bus63,247.686523,-0.540033,251.466786,3.652681,249.678135,1.561477
Bus64,245.454364,-0.541901,251.055181,3.650002,248.364336,1.562804
Bus65,241.743904,-0.545326,250.352742,3.645598,246.059077,1.564968
Bus66,238.797532,-0.542151,250.392605,3.645313,246.194948,1.565187
Bus67,242.301227,-0.544598,250.490370,3.646198,246.511830,1.564711
Bus68,244.032713,-0.543108,250.801702,3.648288,247.529122,1.563660
Bus69,248.615660,-0.539276,251.636065,3.653790,250.220647,1.560930
Bus70,247.685612,-0.540032,251.466789,3.652681,249.678145,1.561477
Bus71,245.454365,-0.541901,251.055128,3.650002,248.364336,1.562804
Bus72,242.178622,-0.547822,249.986227,3.647002,244.833819,1.563720
Bus73,237.781606,-0.541100,250.395690,3.645254,246.206177,1.565227
Bus74,238.391914,-0.541732,250.393833,3.645289,246.199434,1.565203
Bus75,242.301227,-0.544598,250.490370,3.646198,246.511830,1.564711
Bus76,244.032713,-0.543108,250.801702,3.648288,247.529122,1.563660
Bus77,248.615660,-0.539276,251.636065,3.653790,250.220647,1.560930
Bus78,245.454368,-0.541901,251.054860,3.650003,248.364337,1.562804
Bus79,242.330508,-0.548690,249.858586,3.647493,244.406816,1.563283
Bus80,242.301227,-0.544598,250.490370,3.646198,246.511830,1.564711
Bus81,244.032713,-0.543108,250.801702,3.648288,247.529122,1.563660
Bus82,248.615660,-0.539276,251.636065,3.653790,250.220647,1.560930
Bus83,245.454379,-0.541901,251.053849,3.650004,248.364340,1.562804
Bus84,242.363678,-0.548879,249.830738,3.647600,244.313636,1.563187
Bus85,242.301227,-0.544598,250.490370,3.646198,246.511830,1.564711
Bus86,244.032713,-0.543108,250.801702,3.648288,247.529122,1.563660
Bus87,248.615660,-0.539276,251.636065,3.653790,250.220647,1.560930
Bus88,242.430970,-0.549263,249.774276,3.647817,244.124689,1.562992
Bus89,242.301227,-0.544598,250.490370,3.646198,246.511830,1.564711
Bus90,244.032713,-0.543108,250.801702,3.648288,247.529122,1.563660
Bus91,248.615660,-0.539276,251.636065,3.653790,250.220647,1.560930
Bus92,242.494462,-0.549624,249.721041,3.648022,243.946512,1.562809
Bus93,244.032713,-0.543108,250.801702,3.648288,247.529122,1.563660
Bus94,248.615660,-0.539276,251.636065,3.653790,250.220647,1.560930
Bus95,242.531380,-0.549835,249.690104,3.648141,243.842952,1.562702
Bus96,244.032713,-0.543108,250.801702,3.648288,247.529122,1.563660
Bus97,248.615660,-0.539276,251.636065,3.653790,250.220647,1.560930
Bus98,242.555768,-0.549973,249.669674,3.648220,243.774560,1.562631
Bus99,244.032713,-0.543108,250.801702,3.648288,247.529122,1.563660
Bus100,248.615660,-0.539276,251.636065,3.653790,250.220647,1.560930
Bus101,242.589448,-0.550165,249.641468,3.648329,243.680132,1.562534
Bus102,244.032713,-0.543108,250.801702,3.648288,247.529122,1.563660
Bus103,248.615660,-0.539276,251.636065,3.653790,250.220647,1.560930
Bus104,242.589449,-0.550165,249.641444,3.648329,243.680109,1.562534
Bus105,242.611683,-0.550291,249.622968,3.648400,243.617900,1.562469
Bus106,244.032713,-0.543108,250.801702,3.648288,247.529122,1.563660
Bus107,242.589450,-0.550165,249.641414,3.648329,243.680082,1.562534
Bus108,242.624293,-0.550363,249.612479,3.648441,243.582611,1.562433
Bus109,244.032713,-0.543108,250.801702,3.648288,247.529122,1.563660
Bus110,242.589451,-0.550165,249.641379,3.648329,243.680050,1.562533
Bus111,243.122842,-0.553185,249.198910,3.650045,242.190493,1.560984
Bus112,244.032713,-0.543108,250.801702,3.648288,247.529122,1.563660
Bus113,242.589452,-0.550165,249.641327,3.648329,243.680002,1.562533
Bus114,243.172893,-0.553467,249.157515,3.650206,242.051061,1.560837
Bus115,244.032713,-0.543108,250.801702,3.648288,247.529122,1.563660
Bus116,242.589455,-0.550165,249.641259,3.648329,243.679940,1.562533
Bus117,243.172891,-0.553467,249.157464,3.650206,242.050967,1.560837
Bus118,243.339063,-0.554335,249.040148,3.650654,241.627586,1.560280
Bus119,244.032713,-0.543108,250.801702,3.648288,247.529122,1.563660
Bus120,242.589456,-0.550165,249.641211,3.648329,243.679896,1.562533
Bus121,243.172891,-0.553467,249.157464,3.650206,242.050967,1.560837
Bus122,243.172891,-0.553467,249.157439,3.650206,242.050921,1.560837
Bus123,243.639192,-0.555898,248.828617,3.651463,240.864094,1.559269
Bus124,244.032713,-0.543108,250.801702,3.648288,247.529122,1.563660
Bus125,242.589459,-0.550165,249.641142,3.648329,243.679833,1.562533
Bus126,243.172891,-0.553467,249.157464,3.650206,242.050967,1.560837
Bus127,243.172887,-0.553467,249.157321,3.650206,242.050706,1.560837
Bus128,243.774353,-0.556600,248.733545,3.651827,240.520833,1.558813
Bus129,244.032713,-0.543108,250.801702,3.648288,247.529122,1.563660
Bus130,242.589461,-0.550165,249.641068,3.648329,243.679765,1.562533
Bus131,243.172891,-0.553467,249.157464,3.650206,242.050967,1.560837
Bus132,243.171967,-0.553467,249.157323,3.650206,242.050716,1.560837
Bus133,243.173152,-0.553468,249.156960,3.650207,242.050010,1.560836
Bus134,243.814590,-0.556808,248.705265,3.651936,240.418713,1.558677
Bus135,244.032713,-0.543108,250.801702,3.648288,247.529122,1.563660
Bus136,242.589463,-0.550165,249.640998,3.648329,243.679701,1.562533
Bus137,243.172891,-0.553467,249.157464,3.650206,242.050967,1.560837
Bus138,243.171888,-0.553466,249.157324,3.650206,242.050717,1.560837
Bus139,243.173348,-0.553468,249.156691,3.650207,242.049492,1.560835
Bus140,243.860023,-0.557044,248.673346,3.652058,240.303445,1.558523
Bus141,244.032713,-0.543108,250.801702,3.648288,247.529122,1.563660
Bus142,242.589467,-0.550165,249.640883,3.648329,243.679596,1.562532
Bus143,243.172891,-0.553467,249.157464,3.650206,242.050967,1.560837
Bus144,243.171810,-0.553466,249.157324,3.650206,242.050718,1.560837
Bus145,243.173479,-0.553469,249.156511,3.650208,242.049146,1.560834
Bus146,243.902764,-0.557265,248.643330,3.652173,240.195043,1.558378
Bus147,244.032713,-0.543108,250.801702,3.648288,247.529122,1.563660
Bus148,242.589485,-0.550165,249.640336,3.648329,243.679095,1.562531
Bus149,243.172891,-0.553467,249.157464,3.650206,242.050967,1.560837
Bus150,243.171747,-0.553466,249.157324,3.650206,242.050719,1.560837
Bus151,243.173521,-0.553469,249.156626,3.650208,242.048770,1.560834
Bus152,243.173508,-0.553469,249.153827,3.650210,242.049153,1.560834
Bus153,243.952650,-0.557523,248.608311,3.652308,240.068565,1.558209
Bus154,244.032713,-0.543108,250.801702,3.648288,247.529122,1.563660
Bus155,242.589489,-0.550165,249.640217,3.648329,243.678986,1.562531
Bus156,243.172891,-0.553467,249.157464,3.650206,242.050967,1.560837
Bus157,243.171653,-0.553466,249.157324,3.650206,242.050720,1.560837
Bus158,243.173632,-0.553471,249.156932,3.650209,242.047772,1.560834
Bus159,243.173510,-0.553469,249.153664,3.650211,242.049154,1.560834
Bus160,243.967007,-0.557597,248.598235,3.652346,240.032173,1.558160
Bus161,244.032713,-0.543108,250.801702,3.648288,247.529122,1.563660
Bus162,242.589522,-0.550165,249.637124,3.648332,243.678994,1.562531
Bus163,242.589437,-0.550166,249.639986,3.648329,243.678551,1.562530
Bus164,243.172891,-0.553467,249.157464,3.650206,242.050967,1.560837
Bus165,243.171539,-0.553466,249.157325,3.650206,242.050721,1.560837
Bus166,243.173671,-0.553472,249.157038,3.650210,242.047426,1.560833
Bus167,243.173512,-0.553469,249.153515,3.650211,242.049154,1.560834
Bus168,244.048599,-0.558019,248.541001,3.652566,239.825433,1.557884
Bus169,244.032713,-0.543108,250.801702,3.648288,247.529122,1.563660
Bus170,242.589529,-0.550165,249.636540,3.648333,243.678996,1.562531
Bus171,242.589367,-0.550167,249.639680,3.648329,243.677974,1.562529
Bus172,243.172891,-0.553467,249.157464,3.650206,242.050967,1.560837
Bus173,243.171453,-0.553466,249.157325,3.650206,242.050722,1.560837
Bus174,243.173671,-0.553472,249.157038,3.650210,242.047426,1.560833
Bus175,243.173680,-0.553472,249.157069,3.650210,242.044622,1.560836
Bus176,243.173513,-0.553469,249.153453,3.650211,242.049155,1.560834
Bus177,244.094702,-0.558257,248.508680,3.652690,239.708674,1.557727
Bus178,242.589542,-0.550165,249.635334,3.648334,243.679000,1.562531
Bus179,242.589342,-0.550166,249.639591,3.648329,243.678001,1.562529
Bus180,242.589373,-0.550167,249.639697,3.648329,243.676369,1.562531
Bus181,243.172891,-0.553467,249.157464,3.650206,242.050967,1.560837
Bus182,243.171354,-0.553466,249.157325,3.650206,242.050723,1.560837
Bus183,243.173671,-0.553472,249.157038,3.650210,242.047426,1.560833
Bus184,243.173681,-0.553472,249.157072,3.650210,242.044319,1.560837
Bus185,243.173514,-0.553469,249.153319,3.650211,242.049155,1.560834
Bus186,244.128934,-0.558433,248.484690,3.652783,239.622004,1.557611
Bus187,242.589242,-0.550166,249.639239,3.648329,243.678105,1.562529
Bus188,242.589394,-0.550167,249.639769,3.648330,243.669728,1.562538
Bus189,243.172891,-0.553467,249.157464,3.650206,242.050967,1.560837
Bus190,243.171260,-0.553466,249.157325,3.650206,242.050724,1.560837
Bus191,243.173671,-0.553472,249.157038,3.650210,242.047426,1.560833
Bus192,243.173671,-0.553472,249.157038,3.650210,242.047426,1.560833
Bus193,243.173682,-0.553472,249.157075,3.650210,242.044026,1.560837
Bus194,243.173518,-0.553469,249.152979,3.650211,242.049156,1.560834
Bus195,244.159717,-0.558592,248.463123,3.652866,239.544087,1.557506
Bus196,242.589064,-0.550165,249.638611,3.648328,243.678290,1.562528
Bus197,242.589396,-0.550167,249.639774,3.648330,243.669315,1.562538
Bus198,242.589396,-0.550167,249.639775,3.648330,243.669217,1.562538
Bus199,243.172891,-0.553467,249.157464,3.650206,242.050967,1.560837
Bus200,243.171160,-0.553466,249.157326,3.650206,242.050725,1.560837
...
SourceBus_1,6661.694657,-0.002458,6667.489750,4.186203,6663.847508,2.091119
LOAD1,247.686440,-0.540032,251.466786,3.652681,249.678136,1.561477
LOAD2,245.454375,-0.541901,251.054155,3.650003,248.364339,1.562804
LOAD3,247.685612,-0.540032,251.466789,3.652681,249.678145,1.561477
LOAD4,237.781606,-0.541100,250.395690,3.645254,246.206177,1.565227
LOAD5,238.391914,-0.541732,250.393833,3.645289,246.199434,1.565203
LOAD6,245.454379,-0.541901,251.053849,3.650004,248.364340,1.562804
LOAD7,242.589542,-0.550165,249.635334,3.648334,243.679000,1.562531
LOAD8,242.589399,-0.550167,249.639785,3.648330,243.668270,1.562539
LOAD9,242.583696,-0.550160,249.638626,3.648327,243.678350,1.562528
LOAD10,242.589335,-0.550164,249.629657,3.648336,243.678373,1.562527
LOAD11,242.589333,-0.550164,249.629860,3.648336,243.678372,1.562527
LOAD12,242.589406,-0.550167,249.639810,3.648330,243.666010,1.562542
LOAD13,243.173563,-0.553468,249.148811,3.650215,242.049168,1.560834
LOAD14,243.169431,-0.553464,249.157330,3.650206,242.050745,1.560837
LOAD15,243.173556,-0.553468,249.149439,3.650215,242.049166,1.560834
LOAD16,243.173704,-0.553472,249.157147,3.650210,242.037427,1.560844
LOAD17,243.173696,-0.553472,249.157123,3.650210,242.039698,1.560841
LOAD18,246.210826,-0.569064,246.797776,3.658743,231.172218,1.554054
LOAD19,244.645852,-0.561088,248.123626,3.654175,238.312904,1.555852
LOAD20,245.443446,-0.565139,247.440109,3.656447,236.318603,1.553126
LOAD21,244.455686,-0.560128,248.253849,3.653671,238.787823,1.556487
LOAD22,245.442495,-0.565138,247.440111,3.656447,236.318614,1.553126
LOAD23,246.530962,-0.568976,245.914755,3.658445,234.575082,1.547783
LOAD24,244.883661,-0.562454,247.997385,3.654926,237.053933,1.555743
LOAD25,249.067551,-0.569768,239.460885,3.657064,235.409849,1.526444
LOAD26,244.865554,-0.562403,247.972347,3.654898,237.638927,1.555126
LOAD27,244.878272,-0.562418,247.987595,3.654902,237.638775,1.555133
LOAD28,244.878272,-0.562418,247.987594,3.654902,237.638827,1.555133
LOAD29,249.871806,-0.570021,237.436299,3.656631,235.690913,1.519778
LOAD30,249.067742,-0.569768,239.460885,3.657064,235.409847,1.526444
LOAD31,249.871908,-0.570021,237.436299,3.656631,235.690912,1.519778
LOAD32,244.861542,-0.562401,247.971011,3.654894,237.633270,1.555132
LOAD33,250.900492,-0.570356,234.885445,3.656088,236.053071,1.511394
LOAD34,248.395277,-0.569559,241.171898,3.657433,235.178789,1.532084
LOAD35,251.507000,-0.576042,230.456677,3.653868,236.336263,1.501638
LOAD36,250.532822,-0.570235,235.794879,3.656295,235.923542,1.514407
LOAD37,250.532821,-0.570235,235.794995,3.656295,235.923542,1.514407
LOAD38,244.856651,-0.562395,247.963697,3.654893,237.636323,1.555128
LOAD39,244.852876,-0.562392,247.963111,3.654890,237.628056,1.555134
LOAD40,244.850231,-0.562386,247.955567,3.654891,237.633760,1.555125
LOAD41,244.843878,-0.562366,247.937288,3.654898,237.631293,1.555117
LOAD42,244.852878,-0.562392,247.963116,3.654890,237.627616,1.555135
LOAD43,244.839923,-0.562364,247.941399,3.654892,237.621163,1.555127
LOAD44,244.864070,-0.562402,247.970575,3.654898,237.638290,1.555126
LOAD45,244.843875,-0.562366,247.937517,3.654898,237.631292,1.555117
LOAD46,244.840080,-0.562379,247.966352,3.654888,237.636181,1.555130
LOAD47,244.839921,-0.562364,247.941394,3.654892,237.621675,1.555127
LOAD48,244.841287,-0.562380,247.966349,3.654888,237.636168,1.555130
LOAD49,244.839940,-0.562379,247.966352,3.654888,237.636183,1.555130
LOAD50,244.836304,-0.562341,247.922892,3.654897,237.631831,1.555107
LOAD51,244.838360,-0.562369,247.953317,3.654884,237.633579,1.555125
LOAD52,244.827183,-0.562340,247.935226,3.654885,237.631325,1.555117
LOAD53,244.836304,-0.562341,247.922641,3.654897,237.631831,1.555107
LOAD54,244.836931,-0.562367,247.953321,3.654884,237.633595,1.555125
LOAD55,244.826903,-0.562340,247.935246,3.654884,237.631412,1.555117
capBus626,251.485525,-0.574770,231.796914,3.653635,236.316084,1.502910
capBus633,251.493596,-0.575249,231.488815,3.653505,236.323668,1.502431
capBus639,251.507000,-0.576042,230.456677,3.653868,236.336263,1.501638
